DIST setuptools_dynamic_dependencies-1.0.0.tar.gz 7233 BLAKE2B d4a1b6a200781da5fa23306827fa39d0247f62250f1759a8aad009b709cf86ce2aadf95081ca2357e204d09a25fe5b27ee096cc1ba692141c508de049914512c SHA512 edcb1e2d4dbaef2d7b6081f4bfb13c30c9801a93cf002ad2a3cb0e2fab441b690b5cdda6e8307d5c960b02c1e9e1c5723e1d53715235fc9cd261843b93ced7b4
EBUILD setuptools-dynamic-dependencies-1.0.0.ebuild 2617 BLAKE2B 9a0db9c7378f77817de0022542c8c5f12d911ff7a1184cee8c96367ccab7071b770f2748a103747bdb14289f0f7c6388519ae4dc512002d30431af9fda5047c5 SHA512 844f7e1e31bf1e4df66026fc82cdcf1e60db920346079cc77b7ce9c550333b836cc3ace21a22641dacc6ca944ccf0e3309a4a45931eb896ca373c0472a53e3e5
MISC metadata.xml 250 BLAKE2B 2c1826692a57fc34172d2287536917d1bed0eab294a590a769caf13b71f79727ca1cbd7b2fbb6ba65164e477be04d1ba1f029d1441d11167c7282e47b47eb8d8 SHA512 6705fbef3cc4702ae20e4ffcffa99663fc11e3fb3eee7d95f1c86096e07e2a0a7f74ae91f8ef242034593d50078dbaa4018673a9ed49581886be49522e5829f3
