# automatically generated by g-sorcery
# please do not edit this file

EAPI=8

REALNAME="${PN}"
LITERALNAME="${PN}"
REALVERSION="${PV}"
DIGEST_SOURCES="yes"
PYTHON_COMPAT=( python{3_10,3_11,3_12} )
DISTUTILS_USE_PEP517=standalone

inherit python-r1 gs-pypi

DESCRIPTION="Python interface to LS-DYNA Service"

HOMEPAGE="https://dyna.docs.pyansys.com"
LICENSE=""
SRC_URI="https://files.pythonhosted.org/packages/source/${REALNAME::1}/${REALNAME}/${REALNAME//-/_}-${REALVERSION}.tar.gz"
SOURCEFILE="${REALNAME//-/_}-${REALVERSION}.tar.gz"
RESTRICT="test"

SLOT="0"
KEYWORDS="~amd64 ~x86"

IUSE="doc tests"
DEPENDENCIES="dev-python/ansys-dpf-core[${PYTHON_USEDEP}]
	dev-python/ansys-api-dyna[${PYTHON_USEDEP}]
	doc? ( dev-python/recommonmark[${PYTHON_USEDEP}] )
	doc? ( dev-python/matplotlib[${PYTHON_USEDEP}] )
	doc? ( dev-python/imageio[${PYTHON_USEDEP}] )
	doc? ( dev-python/imageio-ffmpeg[${PYTHON_USEDEP}] )
	doc? ( dev-python/pyvista[${PYTHON_USEDEP}] )
	doc? ( dev-python/numpydoc[${PYTHON_USEDEP}] )
	doc? ( dev-python/Sphinx[${PYTHON_USEDEP}] )
	doc? ( dev-python/sphinx-autobuild[${PYTHON_USEDEP}] )
	doc? ( dev-python/sphinxcontrib-websupport[${PYTHON_USEDEP}] )
	doc? ( dev-python/pytest-sphinx[${PYTHON_USEDEP}] )
	doc? ( dev-python/sphinx-notfound-page[${PYTHON_USEDEP}] )
	doc? ( dev-python/sphinx-copybutton[${PYTHON_USEDEP}] )
	doc? ( dev-python/sphinx-gallery[${PYTHON_USEDEP}] )
	doc? ( dev-python/sphinx-autodoc-typehints[${PYTHON_USEDEP}] )
	doc? ( dev-python/ansys-sphinx-theme[${PYTHON_USEDEP}] )
	doc? ( dev-python/pypandoc[${PYTHON_USEDEP}] )
	doc? ( dev-python/nbsphinx[${PYTHON_USEDEP}] )
	doc? ( dev-python/ipywidgets[${PYTHON_USEDEP}] )
	doc? ( dev-python/joblib[${PYTHON_USEDEP}] )
	doc? ( dev-python/scikit-learn[${PYTHON_USEDEP}] )
	doc? ( dev-python/ipython[${PYTHON_USEDEP}] )
	doc? ( dev-python/jupyterlab[${PYTHON_USEDEP}] )
	doc? ( dev-python/sphinx-jinja[${PYTHON_USEDEP}] )
	doc? ( dev-python/sphinx-autoapi[${PYTHON_USEDEP}] )
	tests? ( dev-python/pyvista[${PYTHON_USEDEP}] )
	tests? ( dev-python/matplotlib[${PYTHON_USEDEP}] )
	tests? ( dev-python/numpy[${PYTHON_USEDEP}] )
	tests? ( dev-python/pytest[${PYTHON_USEDEP}] )
	tests? ( dev-python/pytest-cov[${PYTHON_USEDEP}] )
	tests? ( dev-python/joblib[${PYTHON_USEDEP}] )
	tests? ( dev-python/pandas[${PYTHON_USEDEP}] )
	tests? ( dev-python/openpyxl[${PYTHON_USEDEP}] )
	tests? ( dev-python/scikit-learn[${PYTHON_USEDEP}] )
	tests? ( dev-python/pytest-xdist[${PYTHON_USEDEP}] )
	tests? ( dev-python/ipython[${PYTHON_USEDEP}] )"
BDEPEND="${DEPENDENCIES}"
RDEPEND="${DEPENDENCIES}"
