# automatically generated by g-sorcery
# please do not edit this file

EAPI=8

REALNAME="${PN}"
LITERALNAME="${PN}"
REALVERSION="${PV}"
DIGEST_SOURCES="yes"
PYTHON_COMPAT=( python{3_10,3_11,3_12} )
DISTUTILS_USE_PEP517=standalone

inherit python-r1 gs-pypi

DESCRIPTION="Python interface to LS-DYNA Service"

HOMEPAGE="https://dyna.docs.pyansys.com"
LICENSE=""
SRC_URI="https://files.pythonhosted.org/packages/source/${REALNAME::1}/${REALNAME}/${REALNAME//-/_}-${REALVERSION}.tar.gz"
SOURCEFILE="${REALNAME//-/_}-${REALVERSION}.tar.gz"
RESTRICT="test"

SLOT="0"
KEYWORDS="~amd64 ~x86"

IUSE="all codegen doc graphics pim tests"
DEPENDENCIES="dev-python/ansys-dpf-core[${PYTHON_USEDEP}]
	dev-python/ansys-api-dyna[${PYTHON_USEDEP}]
	dev-python/ansys-tools-path[${PYTHON_USEDEP}]
	dev-python/hollerith[${PYTHON_USEDEP}]
	>=dev-python/numpy-1.0[${PYTHON_USEDEP}]
	>=dev-python/pandas-2.0[${PYTHON_USEDEP}]
	>=dev-python/appdirs-1.4.4[${PYTHON_USEDEP}]
	dev-python/transformations[${PYTHON_USEDEP}]
	~dev-python/chardet-5.2.0[${PYTHON_USEDEP}]
	~dev-python/requests-2.32.4[${PYTHON_USEDEP}]
	all? ( dev-python/ansys-platform-instancemanagement[${PYTHON_USEDEP}] )
	all? ( dev-python/pyvista[${PYTHON_USEDEP}] )
	all? ( dev-python/jinja[${PYTHON_USEDEP}] )
	codegen? ( dev-python/jinja[${PYTHON_USEDEP}] )
	doc? ( ~dev-python/recommonmark-0.7.1[${PYTHON_USEDEP}] )
	doc? ( ~dev-python/matplotlib-3.10.3[${PYTHON_USEDEP}] )
	doc? ( ~dev-python/imageio-2.37.0[${PYTHON_USEDEP}] )
	doc? ( ~dev-python/imageio-ffmpeg-0.6.0[${PYTHON_USEDEP}] )
	doc? ( ~dev-python/numpydoc-1.9.0[${PYTHON_USEDEP}] )
	doc? ( ~dev-python/sphinx-8.2.1[${PYTHON_USEDEP}] )
	doc? ( dev-python/sphinx-autobuild[${PYTHON_USEDEP}] )
	doc? ( dev-python/sphinx_design[${PYTHON_USEDEP}] )
	doc? ( ~dev-python/sphinxcontrib-websupport-2.0.0[${PYTHON_USEDEP}] )
	doc? ( dev-python/pytest-sphinx[${PYTHON_USEDEP}] )
	doc? ( ~dev-python/sphinx-notfound-page-1.1.0[${PYTHON_USEDEP}] )
	doc? ( ~dev-python/sphinx-copybutton-0.5.2[${PYTHON_USEDEP}] )
	doc? ( ~dev-python/sphinx-gallery-0.19.0[${PYTHON_USEDEP}] )
	doc? ( ~dev-python/sphinx-autodoc-typehints-3.1.0[${PYTHON_USEDEP}] )
	doc? ( dev-python/ansys-sphinx-theme[${PYTHON_USEDEP}] )
	doc? ( dev-python/pypandoc[${PYTHON_USEDEP}] )
	doc? ( ~dev-python/nbsphinx-0.9.6[${PYTHON_USEDEP}] )
	doc? ( ~dev-python/ipywidgets-8.1.7[${PYTHON_USEDEP}] )
	doc? ( ~dev-python/joblib-1.5.1[${PYTHON_USEDEP}] )
	doc? ( ~dev-python/scikit-learn-1.7.0[${PYTHON_USEDEP}] )
	doc? ( ~dev-python/ipython-8.37.0[${PYTHON_USEDEP}] )
	doc? ( ~dev-python/jupyterlab-4.4.4[${PYTHON_USEDEP}] )
	doc? ( dev-python/sphinx-jinja[${PYTHON_USEDEP}] )
	doc? ( ~dev-python/sphinx-autoapi-3.6.0[${PYTHON_USEDEP}] )
	doc? ( dev-python/pyvista[${PYTHON_USEDEP}] )
	graphics? ( dev-python/pyvista[${PYTHON_USEDEP}] )
	pim? ( dev-python/ansys-platform-instancemanagement[${PYTHON_USEDEP}] )
	tests? ( ~dev-python/matplotlib-3.10.3[${PYTHON_USEDEP}] )
	tests? ( ~dev-python/numpy-2.2.6[${PYTHON_USEDEP}] )
	tests? ( ~dev-python/pytest-8.4.1[${PYTHON_USEDEP}] )
	tests? ( ~dev-python/pytest-cov-6.2.1[${PYTHON_USEDEP}] )
	tests? ( ~dev-python/joblib-1.5.1[${PYTHON_USEDEP}] )
	tests? ( ~dev-python/pandas-2.3.0[${PYTHON_USEDEP}] )
	tests? ( ~dev-python/openpyxl-3.1.5[${PYTHON_USEDEP}] )
	tests? ( ~dev-python/scikit-learn-1.7.0[${PYTHON_USEDEP}] )
	tests? ( ~dev-python/pytest-xdist-3.8.0[${PYTHON_USEDEP}] )
	tests? ( ~dev-python/ipython-8.37.0[${PYTHON_USEDEP}] )
	tests? ( dev-python/pyvista[${PYTHON_USEDEP}] )"
BDEPEND="${DEPENDENCIES}"
RDEPEND="${DEPENDENCIES}"
