# automatically generated by g-sorcery
# please do not edit this file

EAPI=8

REALNAME="${PN}"
LITERALNAME="${PN}"
REALVERSION="${PV}"
DIGEST_SOURCES="yes"
PYTHON_COMPAT=( python{3_10,3_11,3_12} )
DISTUTILS_USE_PEP517=standalone

inherit python-r1 gs-pypi

DESCRIPTION="Python interface to LS-DYNA Service"

HOMEPAGE="https://dyna.docs.pyansys.com"
LICENSE=""
SRC_URI="https://files.pythonhosted.org/packages/source/${REALNAME::1}/${REALNAME}/${REALNAME//-/_}-${REALVERSION}.tar.gz"
SOURCEFILE="${REALNAME//-/_}-${REALVERSION}.tar.gz"
RESTRICT="test"

SLOT="0"
KEYWORDS="~amd64 ~x86"

IUSE="codegen doc tests"
DEPENDENCIES="dev-python/ansys-dpf-core[${PYTHON_USEDEP}]
	dev-python/ansys-api-dyna[${PYTHON_USEDEP}]
	dev-python/ansys-tools-path[${PYTHON_USEDEP}]
	dev-python/ansys-platform-instancemanagement[${PYTHON_USEDEP}]
	dev-python/pyvista[${PYTHON_USEDEP}]
	dev-python/hollerith[${PYTHON_USEDEP}]
	>=dev-python/numpy-2.0.0[${PYTHON_USEDEP}]
	>=dev-python/pandas-2.0[${PYTHON_USEDEP}]
	>=dev-python/appdirs-1.4.4[${PYTHON_USEDEP}]
	codegen? ( dev-python/jinja[${PYTHON_USEDEP}] )
	doc? ( ~dev-python/recommonmark-0.7.1[${PYTHON_USEDEP}] )
	doc? ( ~dev-python/matplotlib-3.9.2[${PYTHON_USEDEP}] )
	doc? ( ~dev-python/imageio-2.36.0[${PYTHON_USEDEP}] )
	doc? ( ~dev-python/imageio-ffmpeg-0.5.1[${PYTHON_USEDEP}] )
	doc? ( ~dev-python/numpydoc-1.8.0[${PYTHON_USEDEP}] )
	doc? ( ~dev-python/sphinx-8.1.3[${PYTHON_USEDEP}] )
	doc? ( dev-python/sphinx-autobuild[${PYTHON_USEDEP}] )
	doc? ( ~dev-python/sphinxcontrib-websupport-2.0.0[${PYTHON_USEDEP}] )
	doc? ( dev-python/pytest-sphinx[${PYTHON_USEDEP}] )
	doc? ( ~dev-python/sphinx-notfound-page-1.0.4[${PYTHON_USEDEP}] )
	doc? ( ~dev-python/sphinx-copybutton-0.5.2[${PYTHON_USEDEP}] )
	doc? ( ~dev-python/sphinx-gallery-0.18.0[${PYTHON_USEDEP}] )
	doc? ( ~dev-python/sphinx-autodoc-typehints-2.5.0[${PYTHON_USEDEP}] )
	doc? ( dev-python/ansys-sphinx-theme[${PYTHON_USEDEP}] )
	doc? ( dev-python/pypandoc[${PYTHON_USEDEP}] )
	doc? ( ~dev-python/nbsphinx-0.9.5[${PYTHON_USEDEP}] )
	doc? ( ~dev-python/ipywidgets-8.1.5[${PYTHON_USEDEP}] )
	doc? ( ~dev-python/joblib-1.4.2[${PYTHON_USEDEP}] )
	doc? ( ~dev-python/scikit-learn-1.5.2[${PYTHON_USEDEP}] )
	doc? ( ~dev-python/ipython-8.29.0[${PYTHON_USEDEP}] )
	doc? ( ~dev-python/jupyterlab-4.3.0[${PYTHON_USEDEP}] )
	doc? ( dev-python/sphinx-jinja[${PYTHON_USEDEP}] )
	doc? ( ~dev-python/sphinx-autoapi-3.3.3[${PYTHON_USEDEP}] )
	doc? ( dev-python/pyvista[${PYTHON_USEDEP}] )
	tests? ( ~dev-python/matplotlib-3.9.2[${PYTHON_USEDEP}] )
	tests? ( ~dev-python/numpy-2.1.3[${PYTHON_USEDEP}] )
	tests? ( ~dev-python/pytest-8.3.3[${PYTHON_USEDEP}] )
	tests? ( ~dev-python/pytest-cov-6.0.0[${PYTHON_USEDEP}] )
	tests? ( ~dev-python/joblib-1.4.2[${PYTHON_USEDEP}] )
	tests? ( ~dev-python/pandas-2.2.3[${PYTHON_USEDEP}] )
	tests? ( ~dev-python/openpyxl-3.1.5[${PYTHON_USEDEP}] )
	tests? ( ~dev-python/scikit-learn-1.5.2[${PYTHON_USEDEP}] )
	tests? ( ~dev-python/pytest-xdist-3.6.1[${PYTHON_USEDEP}] )
	tests? ( ~dev-python/ipython-8.29.0[${PYTHON_USEDEP}] )
	tests? ( dev-python/pyvista[${PYTHON_USEDEP}] )"
BDEPEND="${DEPENDENCIES}"
RDEPEND="${DEPENDENCIES}"
