# automatically generated by g-sorcery
# please do not edit this file

EAPI=8

REALNAME="${PN}"
LITERALNAME="${PN}"
REALVERSION="${PV}"
DIGEST_SOURCES="yes"
PYTHON_COMPAT=( python{3_10,3_11,3_12} )
DISTUTILS_USE_PEP517=standalone

inherit python-r1 gs-pypi

DESCRIPTION="Python interface to LS-DYNA Service"

HOMEPAGE="https://dyna.docs.pyansys.com"
LICENSE=""
SRC_URI="https://files.pythonhosted.org/packages/source/${REALNAME::1}/${REALNAME}/${REALNAME//-/_}-${REALVERSION}.tar.gz"
SOURCEFILE="${REALNAME//-/_}-${REALVERSION}.tar.gz"
RESTRICT="test"

SLOT="0"
KEYWORDS="~amd64 ~x86"

IUSE="doc tests"
DEPENDENCIES="dev-python/ansys-dpf-core[${PYTHON_USEDEP}]
	dev-python/ansys-api-dyna[${PYTHON_USEDEP}]
	doc? ( ~dev-python/recommonmark-0.7.1[${PYTHON_USEDEP}] )
	doc? ( ~dev-python/matplotlib-3.8.2[${PYTHON_USEDEP}] )
	doc? ( ~dev-python/imageio-2.33.1[${PYTHON_USEDEP}] )
	doc? ( ~dev-python/imageio-ffmpeg-0.4.9[${PYTHON_USEDEP}] )
	doc? ( dev-python/pyvista[${PYTHON_USEDEP}] )
	doc? ( ~dev-python/numpydoc-1.6.0[${PYTHON_USEDEP}] )
	doc? ( dev-python/Sphinx[${PYTHON_USEDEP}] )
	doc? ( dev-python/sphinx-autobuild[${PYTHON_USEDEP}] )
	doc? ( ~dev-python/sphinxcontrib-websupport-1.2.6[${PYTHON_USEDEP}] )
	doc? ( dev-python/pytest-sphinx[${PYTHON_USEDEP}] )
	doc? ( ~dev-python/sphinx-notfound-page-1.0.0[${PYTHON_USEDEP}] )
	doc? ( ~dev-python/sphinx-copybutton-0.5.2[${PYTHON_USEDEP}] )
	doc? ( ~dev-python/sphinx-gallery-0.15.0[${PYTHON_USEDEP}] )
	doc? ( ~dev-python/sphinx-autodoc-typehints-1.25.2[${PYTHON_USEDEP}] )
	doc? ( dev-python/ansys-sphinx-theme[${PYTHON_USEDEP}] )
	doc? ( dev-python/pypandoc[${PYTHON_USEDEP}] )
	doc? ( ~dev-python/nbsphinx-0.9.3[${PYTHON_USEDEP}] )
	doc? ( ~dev-python/ipywidgets-8.1.1[${PYTHON_USEDEP}] )
	doc? ( ~dev-python/joblib-1.3.2[${PYTHON_USEDEP}] )
	doc? ( dev-python/scikit-learn[${PYTHON_USEDEP}] )
	doc? ( ~dev-python/ipython-8.19.0[${PYTHON_USEDEP}] )
	doc? ( ~dev-python/jupyterlab-4.0.10[${PYTHON_USEDEP}] )
	doc? ( dev-python/sphinx-jinja[${PYTHON_USEDEP}] )
	doc? ( ~dev-python/sphinx-autoapi-3.0.0[${PYTHON_USEDEP}] )
	tests? ( dev-python/pyvista[${PYTHON_USEDEP}] )
	tests? ( ~dev-python/matplotlib-3.8.2[${PYTHON_USEDEP}] )
	tests? ( ~dev-python/numpy-1.26.2[${PYTHON_USEDEP}] )
	tests? ( ~dev-python/pytest-7.4.4[${PYTHON_USEDEP}] )
	tests? ( ~dev-python/pytest-cov-4.1.0[${PYTHON_USEDEP}] )
	tests? ( ~dev-python/joblib-1.3.2[${PYTHON_USEDEP}] )
	tests? ( ~dev-python/pandas-2.1.4[${PYTHON_USEDEP}] )
	tests? ( ~dev-python/openpyxl-3.1.2[${PYTHON_USEDEP}] )
	tests? ( dev-python/scikit-learn[${PYTHON_USEDEP}] )
	tests? ( ~dev-python/pytest-xdist-3.5.0[${PYTHON_USEDEP}] )
	tests? ( ~dev-python/ipython-8.19.0[${PYTHON_USEDEP}] )"
BDEPEND="${DEPENDENCIES}"
RDEPEND="${DEPENDENCIES}"
