# automatically generated by g-sorcery
# please do not edit this file

EAPI=8

REALNAME="${PN}"
LITERALNAME="${PN}"
REALVERSION="${PV}"
DIGEST_SOURCES="yes"
PYTHON_COMPAT=( python{3_11,3_12,3_13,3_14} )
DISTUTILS_USE_PEP517=standalone

inherit python-r1 gs-pypi

DESCRIPTION="Read nodes and elements from LS-DYNA decks."

HOMEPAGE=""
LICENSE=""
SRC_URI="https://files.pythonhosted.org/packages/source/${REALNAME::1}/${REALNAME}/${REALNAME}-${REALVERSION}.tar.gz"
SOURCEFILE="${REALNAME}-${REALVERSION}.tar.gz"
RESTRICT="test"

SLOT="0"
KEYWORDS="~amd64 ~x86"

IUSE="docs pyvista"
DEPENDENCIES=">=dev-python/numpy-1.22.4[${PYTHON_USEDEP}]
	docs? ( dev-python/pydata-sphinx-theme[${PYTHON_USEDEP}] )
	docs? ( dev-python/numpydoc[${PYTHON_USEDEP}] )
	docs? ( dev-python/sphinx[${PYTHON_USEDEP}] )
	docs? ( dev-python/sphinx-copybutton[${PYTHON_USEDEP}] )
	docs? ( dev-python/myst-parser[${PYTHON_USEDEP}] )
	pyvista? ( dev-python/pyvista[${PYTHON_USEDEP}] )"
BDEPEND="${DEPENDENCIES}"
RDEPEND="${DEPENDENCIES}"
