# automatically generated by g-sorcery
# please do not edit this file

EAPI=8

REALNAME="${PN}"
LITERALNAME="${PN}"
REALVERSION="${PV}"
DIGEST_SOURCES="yes"
PYTHON_COMPAT=( python{3_11,3_12,3_13,3_14} )
DISTUTILS_USE_PEP517=standalone

inherit python-r1 gs-pypi

DESCRIPTION="A collection of LS-DYNA card writing tools"

HOMEPAGE="https://gitlab.arup.com/kevin.stanton/AutomatedCardGenerator_LS-DYNA"
LICENSE=""
SRC_URI="https://files.pythonhosted.org/packages/source/${REALNAME::1}/${REALNAME}/${REALNAME}-${REALVERSION}.tar.gz"
SOURCEFILE="${REALNAME}-${REALVERSION}.tar.gz"
RESTRICT="test"

SLOT="0"
KEYWORDS="~amd64 ~x86"

IUSE=""
DEPENDENCIES="dev-python/matplotlib[${PYTHON_USEDEP}]
	dev-python/numpy[${PYTHON_USEDEP}]
	dev-python/pywin32[${PYTHON_USEDEP}]
	dev-python/pandas[${PYTHON_USEDEP}]
	dev-python/DateTime[${PYTHON_USEDEP}]
	dev-python/psutil[${PYTHON_USEDEP}]
	dev-python/scipy[${PYTHON_USEDEP}]"
BDEPEND="${DEPENDENCIES}"
RDEPEND="${DEPENDENCIES}"
